/*--------------------------------*- C++ -*----------------------------------*\
  =========                 |
  \\      /  F ield         | OpenFOAM: The Open Source CFD Toolbox
   \\    /   O peration     | Website:  https://openfoam.org
    \\  /    A nd           | Version:  9
     \\/     M anipulation  |
\*---------------------------------------------------------------------------*/
FoamFile
{
    format      ascii;
    class       volScalarField;
    object      alpha.organic;
}
// * * * * * * * * * * * * * * * * * * * * * * * * * * * * * * * * * * * * * //

dimensions      [0 0 0 0 0 0 0];

internalField   uniform 1;

boundaryField
{
    walls
    {
        type            zeroGradient;
    }
    aqueous_inlet_1
    {
        type            inletOutlet;
        inletValue      uniform 1;
        value           uniform 1;
    }
    aqueous_inlet_2
    {
        type            inletOutlet;
        inletValue      uniform 1;
        value           uniform 1;
    }
    organic_inlet
    {
        type            inletOutlet;
        inletValue      uniform 0;
        value           uniform 0;
    }
    outlet
    {
        type            zeroGradient;
    }

}

// ************************************************************************* //
