/*--------------------------------*- C++ -*----------------------------------*\
  =========                 |
  \\      /  F ield         | OpenFOAM: The Open Source CFD Toolbox
   \\    /   O peration     | Website:  https://openfoam.org
    \\  /    A nd           | Version:  9
     \\/     M anipulation  |
\*---------------------------------------------------------------------------*/
FoamFile
{
    format      ascii;
    class       volScalarField;
    object      p_rgh;
}
// * * * * * * * * * * * * * * * * * * * * * * * * * * * * * * * * * * * * * //

dimensions      [1 -1 -2 0 0 0 0];

internalField   uniform 0;

boundaryField
{
    walls
    {
        type            zeroGradient;
    }
    aqueous_inlet_1
    {
        type            zeroGradient;
    }
    aqueous_inlet_2
    {
        type            zeroGradient;
    }

    organic_inlet
    {
        type            zeroGradient;
    }
    outlet
    {
        type            fixedValue;
	value           uniform 0;
    }

}

// ************************************************************************* //
