/*--------------------------------*- C++ -*----------------------------------*\
  =========                 |
  \\      /  F ield         | OpenFOAM: The Open Source CFD Toolbox
   \\    /   O peration     | Website:  https://openfoam.org
    \\  /    A nd           | Version:  9
     \\/     M anipulation  |
\*---------------------------------------------------------------------------*/
FoamFile
{
    format      ascii;
    class       dictionary;
    location    "constant";
    object      transportProperties;
}
// * * * * * * * * * * * * * * * * * * * * * * * * * * * * * * * * * * * * * //

Dab           [0 2 -1 0 0 0 0]    1e-06;
alphatab      [0 0 0 0 0 0 0]     1;

phases (organic aqueous);

organic
{
    transportModel  Newtonian;
    nu              [0 2 -1 0 0 0 0] 1.796e-06;
    rho             [1 -3 0 0 0 0 0] 1095;
}

aqueous
{
    transportModel  Newtonian;
    nu              [0 2 -1 0 0 0 0] 8.926e-07;
    rho             [1 -3 0 0 0 0 0] 1000;
}

sigma            0.07;

// ************************************************************************* //
